Version 4
SHEET 1 900 680
WIRE 576 -672 496 -672
WIRE 336 -608 272 -608
WIRE 576 -560 576 -672
WIRE 528 -528 336 -528
WIRE 272 -448 272 -608
WIRE 336 -448 272 -448
WIRE 528 -384 528 -528
WIRE 528 -384 336 -384
WIRE 624 -384 528 -384
WIRE 192 -352 80 -352
WIRE 496 -352 496 -672
WIRE 464 -336 336 -336
WIRE 624 -320 624 -384
WIRE 624 -320 528 -320
WIRE 896 -320 624 -320
WIRE 464 -304 384 -304
WIRE 272 -272 272 -448
WIRE 272 -272 192 -272
WIRE 336 -272 336 -336
WIRE 336 -272 272 -272
WIRE 80 -256 80 -352
WIRE 384 -240 384 -304
WIRE 496 -240 496 -288
WIRE 80 -128 80 -176
WIRE 496 -80 496 -160
FLAG 80 -128 0
FLAG 496 -80 0
FLAG 384 -240 0
FLAG 576 -480 0
SYMBOL voltage 80 -272 R0
WINDOW 123 0 0 Left 0
WINDOW 39 0 0 Left 0
SYMATTR InstName V1
SYMATTR Value PULSE(2.5 -2.5 0 0 0 100u 200u)
SYMBOL res 176 -368 R0
SYMATTR InstName R1
SYMATTR Value 10k
SYMBOL OpAmps\\UniversalOpamp2 496 -320 R0
SYMATTR InstName U1
SYMBOL voltage 496 -256 R0
WINDOW 123 0 0 Left 0
WINDOW 39 0 0 Left 0
SYMATTR InstName V2
SYMATTR Value -15v
SYMBOL cap 320 -448 R0
SYMATTR InstName C1
SYMATTR Value 4n7
SYMBOL res 320 -624 R0
SYMATTR InstName R2
SYMATTR Value 100k
SYMBOL voltage 576 -576 R0
SYMATTR InstName V3
SYMATTR Value 15v
TEXT 46 -56 Left 2 !.tran 0.01
