Version 4
SHEET 1 880 680
WIRE 144 -160 16 -160
WIRE 16 -144 16 -160
WIRE 192 32 48 32
WIRE 320 32 272 32
WIRE 144 80 144 -160
WIRE -64 96 -112 96
WIRE 48 96 48 32
WIRE 48 96 16 96
WIRE 112 96 48 96
WIRE 320 112 320 32
WIRE 320 112 176 112
WIRE 112 128 80 128
WIRE -112 144 -112 96
WIRE 144 240 144 144
WIRE -112 272 -112 224
WIRE 80 272 80 128
FLAG -112 272 0
FLAG 80 272 0
FLAG 16 -64 0
FLAG 144 320 0
SYMBOL OpAmps\\LT1001 144 48 R0
SYMATTR InstName U1
SYMBOL res 288 16 R90
WINDOW 0 0 56 VBottom 2
WINDOW 3 32 56 VTop 2
SYMATTR InstName R2
SYMATTR Value 5k
SYMBOL res 32 80 R90
WINDOW 0 0 56 VBottom 2
WINDOW 3 32 56 VTop 2
SYMATTR InstName R1
SYMATTR Value 1k
SYMBOL voltage -112 128 R0
WINDOW 123 0 0 Left 0
WINDOW 39 0 0 Left 0
SYMATTR InstName V1
SYMATTR Value SINE(0 1 1000)
SYMBOL voltage 144 224 R0
WINDOW 123 0 0 Left 0
WINDOW 39 0 0 Left 0
SYMATTR InstName V2
SYMATTR Value -15
SYMBOL voltage 16 -160 R0
WINDOW 123 0 0 Left 0
WINDOW 39 0 0 Left 0
SYMATTR InstName V3
SYMATTR Value 15
TEXT -144 296 Left 2 !.tran 0.01
