Version 4
SHEET 1 880 680
WIRE 560 -144 336 -144
WIRE 560 -80 560 -144
WIRE 288 -32 208 -32
WIRE 128 48 48 48
WIRE 480 48 288 48
WIRE 128 64 128 48
WIRE 208 128 208 -32
WIRE 208 128 128 128
WIRE 272 128 208 128
WIRE 48 144 48 48
WIRE 336 144 336 -144
WIRE 272 160 272 128
WIRE 304 160 272 160
WIRE 480 176 480 48
WIRE 480 176 368 176
WIRE 816 176 480 176
WIRE 304 192 272 192
WIRE 272 288 272 192
WIRE 336 368 336 208
WIRE 576 368 336 368
FLAG 48 224 0
FLAG 576 448 0
FLAG 560 0 0
FLAG 272 288 0
DATAFLAG 80 48 ""
SYMBOL voltage 48 128 R0
WINDOW 123 0 0 Left 0
WINDOW 39 0 0 Left 0
SYMATTR InstName V1
SYMATTR Value 2V
SYMBOL res 272 -48 R0
SYMATTR InstName R1
SYMATTR Value 100K
SYMBOL voltage 560 -96 R0
WINDOW 123 0 0 Left 0
WINDOW 39 0 0 Left 0
SYMATTR InstName V2
SYMATTR Value 15V
SYMBOL voltage 576 352 R0
WINDOW 123 0 0 Left 0
WINDOW 39 0 0 Left 0
SYMATTR InstName V3
SYMATTR Value -15V
SYMBOL schottky 112 64 R0
SYMATTR InstName D1
SYMATTR Value BAT54
SYMATTR Description Diode
SYMATTR Type diode
SYMBOL OpAmps\\LT1368 336 112 R0
SYMATTR InstName U2
TEXT 14 472 Left 2 !.tran 1
